---- qbsp / ericw-tools v0.18.1 ----
Input file: thebeastguantlet.map
Output file: thebeastguantlet.bsp

---- LoadMapFile ----
<<<<<<< HEAD
         6019 faces
          980 brushes
          316 entities
           51 unique texnames
          884 texinfo
=======
         6007 faces
          978 brushes
          319 entities
           51 unique texnames
          875 texinfo
>>>>>>> fccaa652a5a69c9eee3333a6f194e0025aac6541

Opened WAD: C:/Users/EZ/Downloads/quake-leveldesign-starterkit-master/wads/START.WAD
Opened WAD: C:/Users/EZ/Downloads/quake-leveldesign-starterkit-master/wads/prototype_1_2.wad
Processing hull 0...
---- Brush_LoadEntity ----
<<<<<<< HEAD
          965 brushes
          574 planes
---- CSGFaces ----
         5929 brushfaces
         4912 csgfaces
         3607 mergedfaces
---- SolidBSP ----
         4314 split nodes
         1685 solid leafs
         2490 empty leafs
=======
          963 brushes
          574 planes
---- CSGFaces ----
         5917 brushfaces
         4913 csgfaces
         3606 mergedfaces
---- SolidBSP ----
         4299 split nodes
         1682 solid leafs
         2478 empty leafs
>>>>>>> fccaa652a5a69c9eee3333a6f194e0025aac6541
          140 water leafs
            0 detail leafs
            0 detail illusionary leafs
            0 detail fence leafs
            0 illusionary visblocker leafs
<<<<<<< HEAD
         9410 leaffaces
         8502 nodefaces
---- Portalize ----
         2630 vis leafs
         2630 vis clusters
         7561 vis portals
---- FillOutside ----
         1122 outleafs
---- MergeAll ----
         3147 mergefaces
---- SolidBSP ----
         1846 split nodes
          897 solid leafs
=======
         9444 leaffaces
         8533 nodefaces
---- Portalize ----
         2618 vis leafs
         2618 vis clusters
         7543 vis portals
---- FillOutside ----
         1117 outleafs
---- MergeAll ----
         3146 mergefaces
---- SolidBSP ----
         1840 split nodes
          891 solid leafs
>>>>>>> fccaa652a5a69c9eee3333a6f194e0025aac6541
          867 empty leafs
           83 water leafs
            0 detail leafs
            0 detail illusionary leafs
            0 detail fence leafs
            0 illusionary visblocker leafs
<<<<<<< HEAD
         5996 leaffaces
         4415 nodefaces
---- Portalize ----
          950 vis leafs
          950 vis clusters
         2574 vis portals
---- Tjunc ----
         3661 world edges
        15040 edge points
         3494 edges added by tjunctions
=======
         5974 leaffaces
         4406 nodefaces
---- Portalize ----
          950 vis leafs
          950 vis clusters
         2599 vis portals
---- Tjunc ----
         3657 world edges
        15017 edge points
         3500 edges added by tjunctions
>>>>>>> fccaa652a5a69c9eee3333a6f194e0025aac6541
            0 faces added by tjunctions
---- MakeFaceEdges ----
---- GrowRegions ----
Processing hull 1...
Processing hull 2...
*** WARNING 16: Texture __TB_empty not found
---- WriteBSPFile ----
Wrote thebeastguantlet.bsp
         1310 planes            26200
<<<<<<< HEAD
         6012 vertexes          72144
         1936 nodes             46464
          604 texinfo           24160
         4505 faces             90100
         5492 clipnodes         43936
         1041 leafs             29148
         6086 marksurfaces      12172
        21170 surfedges         84680
        10586 edges             42344
           51 textures         425696
              lightdata             0
              visdata               0
              entdata           22340

4.142 seconds elapsed
Peak memory usage: 39658748 (37.8M)
=======
         6006 vertexes          72072
         1930 nodes             46320
          602 texinfo           24080
         4496 faces             89920
         5455 clipnodes         43640
         1041 leafs             29148
         6064 marksurfaces      12128
        21140 surfedges         84560
        10571 edges             42284
           51 textures         425696
              lightdata             0
              visdata               0
              entdata           22503

11.148 seconds elapsed
Peak memory usage: 39512864 (37.7M)
>>>>>>> fccaa652a5a69c9eee3333a6f194e0025aac6541
