---- qbsp / ericw-tools v0.18.1 ----
Input file: thebeastguantlet.map
Output file: thebeastguantlet.bsp

---- LoadMapFile ----
         6007 faces
          978 brushes
          319 entities
           51 unique texnames
          875 texinfo

Opened WAD: C:/Users/EZ/Downloads/quake-leveldesign-starterkit-master/wads/START.WAD
Opened WAD: C:/Users/EZ/Downloads/quake-leveldesign-starterkit-master/wads/prototype_1_2.wad
Processing hull 0...
---- Brush_LoadEntity ----
          963 brushes
          574 planes
---- CSGFaces ----
         5917 brushfaces
         4913 csgfaces
         3606 mergedfaces
---- SolidBSP ----
         4299 split nodes
         1682 solid leafs
         2478 empty leafs
          140 water leafs
            0 detail leafs
            0 detail illusionary leafs
            0 detail fence leafs
            0 illusionary visblocker leafs
         9444 leaffaces
         8533 nodefaces
---- Portalize ----
         2618 vis leafs
         2618 vis clusters
         7543 vis portals
---- FillOutside ----
         1117 outleafs
---- MergeAll ----
         3146 mergefaces
---- SolidBSP ----
         1840 split nodes
          891 solid leafs
          867 empty leafs
           83 water leafs
            0 detail leafs
            0 detail illusionary leafs
            0 detail fence leafs
            0 illusionary visblocker leafs
         5974 leaffaces
         4406 nodefaces
---- Portalize ----
          950 vis leafs
          950 vis clusters
         2599 vis portals
---- Tjunc ----
         3657 world edges
        15017 edge points
         3500 edges added by tjunctions
            0 faces added by tjunctions
---- MakeFaceEdges ----
---- GrowRegions ----
Processing hull 1...
Processing hull 2...
*** WARNING 16: Texture __TB_empty not found
---- WriteBSPFile ----
Wrote thebeastguantlet.bsp
         1310 planes            26200
         6006 vertexes          72072
         1930 nodes             46320
          602 texinfo           24080
         4496 faces             89920
         5455 clipnodes         43640
         1041 leafs             29148
         6064 marksurfaces      12128
        21140 surfedges         84560
        10571 edges             42284
           51 textures         425696
              lightdata             0
              visdata               0
              entdata           22503

11.148 seconds elapsed
Peak memory usage: 39512864 (37.7M)
